Version 4
SHEET 1 1684 1388
WIRE -2048 -16 -2048 -32
WIRE -2048 0 -2048 -16
WIRE -976 16 -1072 16
WIRE -704 32 -864 32
WIRE -1488 48 -1536 48
WIRE -1232 48 -1296 48
WIRE -976 48 -1072 48
WIRE -1488 80 -1536 80
WIRE -1232 80 -1296 80
WIRE -1488 112 -1536 112
WIRE -1232 112 -1296 112
WIRE -704 112 -704 32
WIRE -576 112 -704 112
WIRE -304 128 -464 128
WIRE -1232 144 -1296 144
WIRE -576 144 -704 144
WIRE -2048 176 -2048 160
WIRE -1232 176 -1296 176
WIRE -1488 208 -1536 208
WIRE -1232 208 -1296 208
WIRE -976 208 -1072 208
WIRE -704 224 -704 144
WIRE -704 224 -864 224
WIRE -1536 240 -1536 208
WIRE -1488 240 -1536 240
WIRE -1232 240 -1296 240
WIRE -976 240 -1072 240
WIRE -1232 272 -1296 272
WIRE -1536 352 -1536 240
WIRE -2048 368 -2048 352
WIRE -2048 384 -2048 368
WIRE -976 384 -1072 384
WIRE -704 400 -864 400
WIRE -1488 416 -1488 272
WIRE -976 416 -1072 416
WIRE -704 464 -704 400
WIRE -576 464 -704 464
WIRE -304 480 -464 480
WIRE -576 496 -704 496
WIRE -976 576 -1072 576
WIRE -704 592 -704 496
WIRE -704 592 -864 592
WIRE -976 608 -1072 608
FLAG -304 128 SUM
FLAG -304 480 C_AND_M
FLAG -1072 16 Y1
FLAG -1072 48 Y2
FLAG -1072 208 Y4
FLAG -1072 240 Y7
FLAG -1072 384 Y3
FLAG -1072 416 Y5
FLAG -1072 576 Y6
FLAG -1072 608 Y7
FLAG -1536 352 0
FLAG -1488 496 0
FLAG -1232 48 Y0
FLAG -1232 80 Y1
FLAG -1232 112 Y2
FLAG -1232 144 Y3
FLAG -1232 176 Y4
FLAG -1232 208 Y5
FLAG -1232 240 Y6
FLAG -1232 272 Y7
FLAG -1536 48 A0
FLAG -1536 80 A1
FLAG -1536 112 A2
FLAG -2048 80 0
FLAG -2048 256 0
FLAG -2048 464 0
FLAG -2048 368 A2
FLAG -2048 -16 A0
FLAG -2048 160 A1
SYMBOL 74hct00 -928 -32 R0
SYMATTR InstName U1
SYMBOL 74hct00 -928 160 R0
SYMATTR InstName U2
SYMBOL 74hct00 -928 336 R0
SYMATTR InstName U3
SYMBOL 74hct00 -928 528 R0
SYMATTR InstName U4
SYMBOL 74hct32 -528 64 R0
SYMATTR InstName U5
SYMBOL 74hct32 -528 416 R0
SYMATTR InstName U6
SYMBOL 74hct138 -1392 -16 R0
SYMATTR InstName U7
SYMBOL voltage -1488 400 R0
WINDOW 123 0 0 Left 2
WINDOW 39 0 0 Left 2
SYMATTR InstName V1
SYMATTR Value 5
SYMBOL voltage -2048 -16 R0
WINDOW 123 0 0 Left 2
WINDOW 39 0 0 Left 2
SYMATTR InstName V2
SYMATTR Value PULSE(5 0 0 1p 1p 1u 2u)
SYMBOL voltage -2048 160 R0
WINDOW 123 0 0 Left 2
WINDOW 39 0 0 Left 2
SYMATTR InstName V3
SYMATTR Value PULSE(5 0 0 1p 1p 2u 4u)
SYMBOL voltage -2048 368 R0
WINDOW 123 0 0 Left 2
WINDOW 39 0 0 Left 2
SYMATTR InstName V4
SYMATTR Value PULSE(5 0 0 1p 1p 4u 8u)
TEXT -584 -120 Left 2 !.INCLUDE 74hct.lib
TEXT -1112 -136 Left 4 ;FULL ADDER
TEXT -536 -88 Left 2 !.tran 8u
