Version 4
SHEET 1 1684 1388
WIRE -1232 144 -1232 128
WIRE -1232 160 -1232 144
WIRE -672 208 -720 208
WIRE -416 208 -480 208
WIRE -672 240 -720 240
WIRE -416 240 -480 240
WIRE -672 272 -720 272
WIRE -416 272 -480 272
WIRE -416 304 -480 304
WIRE -1232 336 -1232 320
WIRE -416 336 -480 336
WIRE -672 368 -720 368
WIRE -416 368 -480 368
WIRE -720 400 -720 368
WIRE -672 400 -720 400
WIRE -416 400 -480 400
WIRE -112 416 -176 416
WIRE -416 432 -480 432
WIRE 128 432 0 432
WIRE -112 448 -176 448
WIRE -720 512 -720 400
WIRE -1232 528 -1232 512
WIRE -1232 544 -1232 528
WIRE 128 544 128 432
WIRE 192 544 128 544
WIRE 432 560 304 560
WIRE -672 576 -672 432
WIRE 192 576 128 576
WIRE -112 672 -176 672
WIRE 128 688 128 576
WIRE 128 688 0 688
WIRE -112 704 -176 704
FLAG -720 512 0
FLAG -672 656 0
FLAG -416 208 Y0
FLAG -416 240 Y1
FLAG -416 272 Y2
FLAG -416 304 Y3
FLAG -416 336 Y4
FLAG -416 368 Y5
FLAG -416 400 Y6
FLAG -416 432 Y7
FLAG -720 208 A0
FLAG -720 240 A1
FLAG -720 272 A2
FLAG -1232 240 0
FLAG -1232 416 0
FLAG -1232 624 0
FLAG -1232 528 A2
FLAG -1232 144 A0
FLAG -1232 320 A1
FLAG 432 560 AB+BC+CA
FLAG -176 416 Y3
FLAG -176 448 Y5
FLAG -176 672 Y6
FLAG -176 704 Y7
SYMBOL 74hct138 -576 144 R0
SYMATTR InstName U7
SYMBOL voltage -672 560 R0
WINDOW 123 0 0 Left 2
WINDOW 39 0 0 Left 2
SYMATTR InstName V1
SYMATTR Value 5
SYMBOL voltage -1232 144 R0
WINDOW 123 0 0 Left 2
WINDOW 39 0 0 Left 2
SYMATTR InstName V2
SYMATTR Value PULSE(5 0 0 1p 1p 1u 2u)
SYMBOL voltage -1232 320 R0
WINDOW 123 0 0 Left 2
WINDOW 39 0 0 Left 2
SYMATTR InstName V3
SYMATTR Value PULSE(5 0 0 1p 1p 2u 4u)
SYMBOL voltage -1232 528 R0
WINDOW 123 0 0 Left 2
WINDOW 39 0 0 Left 2
SYMATTR InstName V4
SYMATTR Value PULSE(5 0 0 1p 1p 4u 8u)
SYMBOL 74hct00 -64 368 R0
SYMATTR InstName U8
SYMBOL 74hct00 -64 624 R0
SYMATTR InstName U9
SYMBOL 74hct32 240 496 R0
SYMATTR InstName U10
TEXT -272 72 Left 2 !.INCLUDE 74hct.lib
TEXT -224 104 Left 2 !.tran 8u
TEXT -232 232 Left 4 ;MAJORITY CIRCUIT
