Version 4
SHEET 1 1604 680
WIRE 48 -624 -64 -624
WIRE 832 -624 720 -624
WIRE -880 -608 -880 -624
WIRE -880 -592 -880 -608
WIRE 16 -592 0 -592
WIRE 48 -592 16 -592
WIRE 800 -592 784 -592
WIRE 832 -592 800 -592
WIRE 16 -560 0 -560
WIRE 48 -560 16 -560
WIRE 800 -560 784 -560
WIRE 832 -560 800 -560
WIRE 16 -528 0 -528
WIRE 48 -528 16 -528
WIRE 800 -528 784 -528
WIRE 832 -528 800 -528
WIRE 48 -432 -48 -432
WIRE 832 -432 736 -432
WIRE -880 -416 -880 -432
WIRE -48 -400 -48 -432
WIRE 48 -400 -48 -400
WIRE 832 -400 784 -400
WIRE -48 -368 -48 -400
WIRE 48 -368 -48 -368
WIRE 784 -368 784 -400
WIRE 832 -368 784 -368
WIRE 48 -336 0 -336
WIRE 304 -336 240 -336
WIRE 320 -336 304 -336
WIRE 736 -336 736 -432
WIRE 832 -336 736 -336
WIRE 1088 -336 1024 -336
WIRE 1104 -336 1088 -336
WIRE -48 -304 -48 -368
WIRE 48 -304 -48 -304
WIRE 304 -304 240 -304
WIRE 320 -304 304 -304
WIRE 784 -304 784 -368
WIRE 832 -304 784 -304
WIRE 1088 -304 1024 -304
WIRE 1104 -304 1088 -304
WIRE 0 -272 0 -336
WIRE 48 -272 0 -272
WIRE 736 -272 736 -336
WIRE 832 -272 736 -272
WIRE 0 -240 0 -272
WIRE 48 -240 0 -240
WIRE 736 -240 736 -272
WIRE 832 -240 736 -240
WIRE -880 -224 -880 -240
WIRE -880 -208 -880 -224
WIRE 0 -208 0 -240
WIRE 48 -208 0 -208
WIRE 784 -208 784 -304
WIRE 832 -208 784 -208
WIRE -48 -112 -48 -304
WIRE 736 -112 736 -240
WIRE 0 -32 0 -208
WIRE 784 -32 784 -208
FLAG -48 -112 0
FLAG 0 48 0
FLAG -64 -624 0
FLAG 16 -592 A0
FLAG 16 -560 A1
FLAG 16 -528 A2
FLAG 304 -304 C_BAR
FLAG 304 -336 C
FLAG -880 -512 0
FLAG -880 -336 0
FLAG -880 -128 0
FLAG -880 -224 A2
FLAG -880 -608 A0
FLAG -880 -432 A1
FLAG 736 -112 0
FLAG 784 48 0
FLAG 720 -624 0
FLAG 800 -592 A0
FLAG 800 -560 A1
FLAG 800 -528 A2
FLAG 1088 -304 S_BAR
FLAG 1088 -336 S
SYMBOL 74hct151 144 -688 R0
SYMATTR InstName U1
SYMBOL voltage 0 -48 R0
WINDOW 123 0 0 Left 2
WINDOW 39 0 0 Left 2
SYMATTR InstName V1
SYMATTR Value 5
SYMBOL voltage -880 -608 R0
WINDOW 123 0 0 Left 2
WINDOW 39 0 0 Left 2
SYMATTR InstName V2
SYMATTR Value PULSE(5 0 0 1p 1p 1u 2u)
SYMBOL voltage -880 -432 R0
WINDOW 123 0 0 Left 2
WINDOW 39 0 0 Left 2
SYMATTR InstName V3
SYMATTR Value PULSE(5 0 0 1p 1p 2u 4u)
SYMBOL voltage -880 -224 R0
WINDOW 123 0 0 Left 2
WINDOW 39 0 0 Left 2
SYMATTR InstName V4
SYMATTR Value PULSE(5 0 0 1p 1p 4u 8u)
SYMBOL 74hct151 928 -688 R0
SYMATTR InstName U2
SYMBOL voltage 784 -48 R0
WINDOW 123 0 0 Left 2
WINDOW 39 0 0 Left 2
SYMATTR InstName V5
SYMATTR Value 5
TEXT 288 -864 Left 2 !.INCLUDE 74HCT.LIB
TEXT -1008 -968 Left 5 ;Full Adder  Using MUX
TEXT 344 -848 Left 2 !.tran 8u
