Version 4
SHEET 1 880 680
WIRE -304 32 -304 0
WIRE 16 64 -32 64
WIRE 144 80 128 80
WIRE 192 80 144 80
WIRE 16 96 -32 96
WIRE 192 160 192 80
WIRE 352 176 304 176
WIRE -240 272 -240 224
WIRE 384 320 320 320
WIRE 144 336 144 80
WIRE 208 336 144 336
WIRE 384 384 384 320
WIRE 544 400 496 400
WIRE 384 416 320 416
WIRE -96 432 -96 400
WIRE 320 480 320 416
FLAG -304 112 0
FLAG -240 352 0
FLAG -96 512 0
FLAG -304 0 A
FLAG -240 224 B
FLAG -32 96 B
FLAG 208 496 B
FLAG -32 64 A
FLAG 208 464 A
FLAG -96 400 Cin
FLAG 192 192 Cin
FLAG 208 304 Cin
FLAG 352 176 S
FLAG 544 400 Cout
SYMBOL 74hct86 64 16 R0
SYMATTR InstName U1
SYMBOL 74hct86 240 112 R0
SYMATTR InstName U2
SYMBOL 74hct08 256 256 R0
SYMATTR InstName U3
SYMBOL 74hct08 256 416 R0
SYMATTR InstName U4
SYMBOL 74hct32 432 336 R0
SYMATTR InstName U5
SYMBOL voltage -304 16 R0
WINDOW 3 -58 206 VLeft 2
WINDOW 123 0 0 Left 2
WINDOW 39 0 0 Left 2
SYMATTR InstName V1
SYMATTR Value PULSE(5V 0 0 1p 1p 1u 2u)
SYMBOL voltage -240 256 R0
WINDOW 3 -58 206 VLeft 2
WINDOW 123 0 0 Left 2
WINDOW 39 0 0 Left 2
SYMATTR InstName V2
SYMATTR Value PULSE(5V 0 0 1p 1p 2u 4u)
SYMBOL voltage -96 416 R0
WINDOW 3 -58 206 VLeft 2
WINDOW 123 0 0 Left 2
WINDOW 39 0 0 Left 2
SYMATTR InstName V3
SYMATTR Value PULSE(5V 0 0 1p 1p 4u 8u)
TEXT 576 -120 Left 2 !.include 74hct.lib
TEXT 624 -72 Left 2 !.tran 8u
