Version 4
SHEET 1 880 680
WIRE -64 -48 -176 -48
WIRE 208 -48 -64 -48
WIRE 240 -48 208 -48
WIRE -176 16 -176 -48
WIRE -64 96 -64 -48
WIRE 48 96 -64 96
WIRE 64 96 48 96
WIRE 224 112 160 112
WIRE 240 112 224 112
WIRE -64 128 -208 128
WIRE 48 128 -64 128
WIRE 64 128 48 128
WIRE -208 160 -208 128
WIRE -64 240 -64 128
WIRE 48 240 -64 240
WIRE 224 256 160 256
WIRE 240 256 224 256
WIRE -80 272 -240 272
WIRE 48 272 -80 272
WIRE -240 288 -240 272
WIRE -80 400 -80 272
WIRE 48 400 -80 400
WIRE 224 416 160 416
WIRE 240 416 224 416
WIRE -128 432 -272 432
WIRE 48 432 -128 432
WIRE 64 432 48 432
WIRE -272 448 -272 432
FLAG -176 96 0
FLAG -208 240 0
FLAG -240 368 0
FLAG -272 528 0
FLAG 224 256 G1
FLAG 224 416 G0
FLAG -80 272 B1
FLAG -128 432 B0
FLAG -64 128 B2
FLAG -64 -48 B3
FLAG 208 -48 G3
FLAG 224 112 G2
SYMBOL 74hct86 96 48 R0
SYMATTR InstName U1
SYMBOL 74hct86 96 192 R0
SYMATTR InstName U3
SYMBOL 74hct86 96 352 R0
SYMATTR InstName U4
SYMBOL voltage -176 0 R0
WINDOW 3 -73 183 VLeft 2
WINDOW 123 0 0 Left 2
WINDOW 39 0 0 Left 2
SYMATTR InstName V1
SYMATTR Value PULSE(5 0 0 1p 1p 1u 2u)
SYMBOL voltage -208 144 R0
WINDOW 3 -73 183 VLeft 2
WINDOW 123 0 0 Left 2
WINDOW 39 0 0 Left 2
SYMATTR InstName V2
SYMATTR Value PULSE(5 0 0 1p 1p 2u 4u)
SYMBOL voltage -240 272 R0
WINDOW 3 -73 183 VLeft 2
WINDOW 123 0 0 Left 2
WINDOW 39 0 0 Left 2
SYMATTR InstName V3
SYMATTR Value PULSE(5 0 0 1p 1p 4u 8u)
SYMBOL voltage -272 432 R0
WINDOW 3 -73 183 VLeft 2
WINDOW 123 0 0 Left 2
WINDOW 39 0 0 Left 2
SYMATTR InstName V4
SYMATTR Value PULSE(5 0 0 1p 1p 8u 16u)
TEXT 352 -72 Left 2 !.include 74hct.lib
TEXT 368 -24 Left 2 !.tran 16u
