Version 4
SHEET 1 880 680
WIRE -64 48 -64 32
WIRE 224 80 208 80
WIRE 64 208 64 176
WIRE 384 208 368 208
FLAG -64 128 0
FLAG 64 288 0
FLAG -64 32 X
FLAG 96 64 X
FLAG 256 192 X
FLAG 64 176 Y
FLAG 96 96 Y
FLAG 256 224 Y
FLAG 224 80 S
FLAG 384 208 C
SYMBOL 74hct86 144 16 R0
SYMATTR InstName U1
SYMBOL 74hct08 304 144 R0
SYMATTR InstName U2
SYMBOL voltage -64 32 R0
WINDOW 3 -51 238 VLeft 2
WINDOW 123 0 0 Left 2
WINDOW 39 0 0 Left 2
SYMATTR InstName V1
SYMATTR Value PULSE(5V 0 0 1p 1p 1u 2u)
SYMBOL voltage 64 192 R0
WINDOW 3 -51 238 VLeft 2
WINDOW 123 0 0 Left 2
WINDOW 39 0 0 Left 2
SYMATTR InstName V2
SYMATTR Value PULSE(5V 0 0 1p 1p 2u 4u)
TEXT 352 0 Left 2 !.include 74hct.lib
TEXT 392 32 Left 2 !.tran 4u
