Version 4
SHEET 1 880 680
WIRE -48 -32 -128 -32
WIRE 48 -32 -48 -32
WIRE 48 64 48 -32
WIRE 0 96 -32 96
WIRE 48 96 0 96
WIRE 64 96 48 96
WIRE -32 144 -32 96
WIRE 160 176 160 80
WIRE 208 176 160 176
WIRE 224 176 208 176
WIRE 416 192 320 192
WIRE 128 208 112 208
WIRE 208 208 128 208
WIRE 112 240 112 208
WIRE 416 272 416 192
WIRE 576 288 528 288
WIRE 304 304 272 304
WIRE 416 304 304 304
WIRE 272 352 272 304
FLAG -128 48 0
FLAG -32 224 0
FLAG 112 320 0
FLAG -48 -32 A
FLAG 0 96 B
FLAG 128 208 C
FLAG 576 288 F
FLAG 304 304 Control
FLAG 272 432 0
SYMBOL 74hct86 96 16 R0
SYMATTR InstName U1
SYMBOL 74hct86 256 128 R0
SYMATTR InstName U2
SYMBOL 74hct86 464 224 R0
SYMATTR InstName U3
SYMBOL voltage -128 -48 R0
WINDOW 3 -60 219 VLeft 2
WINDOW 123 0 0 Left 2
WINDOW 39 0 0 Left 2
SYMATTR InstName V1
SYMATTR Value PULSE(5V 0 0 1p 1p 1u 2u)
SYMBOL voltage -32 128 R0
WINDOW 3 -60 219 VLeft 2
WINDOW 123 0 0 Left 2
WINDOW 39 0 0 Left 2
SYMATTR InstName V2
SYMATTR Value PULSE(5V 0 0 1p 1p 2u 4u)
SYMBOL voltage 112 224 R0
WINDOW 3 -60 219 VLeft 2
WINDOW 123 0 0 Left 2
WINDOW 39 0 0 Left 2
SYMATTR InstName V3
SYMATTR Value PULSE(5V 0 0 1p 1p 4u 8u)
SYMBOL voltage 272 336 R0
WINDOW 3 -60 219 VLeft 2
WINDOW 123 0 0 Left 2
WINDOW 39 0 0 Left 2
SYMATTR InstName V4
SYMATTR Value PULSE(5V 0 0 1p 1p 8u 16u)
TEXT 528 -48 Left 2 ;Parity
TEXT 520 0 Left 2 !.include 74hct.lib
TEXT 536 40 Left 2 !.tran 16u
