Version 4
SHEET 1 1456 680
WIRE 752 -80 16 -80
WIRE 672 -32 672 -160
WIRE 672 -32 64 -32
WIRE 288 16 288 -160
WIRE 848 16 288 16
WIRE -32 80 -144 80
WIRE 16 80 16 -80
WIRE 96 80 16 80
WIRE 480 80 368 80
WIRE 496 80 480 80
WIRE 288 96 288 16
WIRE 416 96 288 96
WIRE 672 96 672 -32
WIRE 848 96 848 16
WIRE 912 96 848 96
WIRE 1104 112 1104 -160
WIRE 96 128 32 128
WIRE 480 128 448 128
WIRE 912 144 864 144
WIRE 368 160 368 80
WIRE 368 160 288 160
WIRE 752 160 752 -80
WIRE 752 160 672 160
WIRE 64 176 64 -32
WIRE 96 176 64 176
WIRE 416 176 416 96
WIRE 480 176 416 176
WIRE -32 240 -32 80
WIRE 192 240 -32 240
WIRE 576 240 192 240
WIRE 912 240 912 192
WIRE 912 240 576 240
WIRE 976 240 912 240
WIRE 32 272 32 128
WIRE 32 272 -144 272
WIRE 448 272 448 128
WIRE 448 272 32 272
WIRE 864 272 864 144
WIRE 864 272 448 272
WIRE 976 304 976 240
WIRE 1008 304 1008 256
WIRE 1008 304 976 304
FLAG -144 160 0
FLAG -144 352 0
SYMBOL 74hct107 192 16 R0
SYMATTR InstName U1
SYMBOL 74hct107 576 16 R0
SYMATTR InstName U2
SYMBOL 74hct107 1008 32 R0
SYMATTR InstName U3
SYMBOL voltage -144 64 R0
WINDOW 123 0 0 Left 2
WINDOW 39 0 0 Left 2
SYMATTR InstName V1
SYMATTR Value 5v
SYMBOL voltage -144 256 R0
WINDOW 123 0 0 Left 2
WINDOW 39 0 0 Left 2
SYMATTR InstName V2
SYMATTR Value PULSE(0 5 0 1p 1p 1u 2u)
TEXT 1232 -176 Left 2 !.include 74hct.lib
TEXT -178 376 Left 2 !.tran 10u
