Version 4
SHEET 1 880 680
WIRE -64 32 -176 -128
WIRE -64 48 -64 32
WIRE -48 48 -64 48
WIRE 112 48 -48 48
WIRE 240 64 224 64
WIRE 416 64 240 64
WIRE 112 80 -16 80
WIRE -176 112 -176 -48
WIRE 416 176 416 64
WIRE -96 192 -176 192
WIRE -16 192 -16 80
WIRE -16 192 -96 192
WIRE -16 208 -16 192
WIRE 112 208 -16 208
WIRE 416 208 368 208
WIRE 608 208 528 208
WIRE 256 224 224 224
WIRE 368 224 368 208
WIRE 368 224 256 224
WIRE 112 240 -16 240
WIRE -16 336 -16 240
WIRE -16 352 -16 336
WIRE 16 352 -16 352
WIRE 112 352 16 352
WIRE 256 368 224 368
WIRE 416 368 416 240
WIRE 416 368 256 368
WIRE -64 384 -64 48
WIRE 112 384 -64 384
WIRE -176 512 -16 336
FLAG -176 112 0
FLAG -176 272 0
FLAG -48 48 A
FLAG -96 192 B
FLAG 16 352 C
FLAG 608 208 F
FLAG -176 592 0
FLAG 240 64 notAB
FLAG 256 224 notBC
FLAG 256 368 notCA
SYMBOL 74hct00 160 0 R0
SYMATTR InstName U1
SYMBOL 74hct00 160 160 R0
SYMATTR InstName U2
SYMBOL 74hct00 160 304 R0
SYMATTR InstName U3
SYMBOL 74hct10 464 128 R0
SYMATTR InstName U4
SYMBOL voltage -176 -144 R0
WINDOW 3 -70 183 VLeft 2
WINDOW 123 0 0 Left 2
WINDOW 39 0 0 Left 2
SYMATTR InstName V1
SYMATTR Value PULSE(5 0 0 1p 1p 1u 2u)
SYMBOL voltage -176 176 R0
WINDOW 3 -70 183 VLeft 2
WINDOW 123 0 0 Left 2
WINDOW 39 0 0 Left 2
SYMATTR InstName V2
SYMATTR Value PULSE(5 0 0 1p 1p 2u 4u)
SYMBOL voltage -176 496 R0
WINDOW 3 -70 183 VLeft 2
WINDOW 123 0 0 Left 2
WINDOW 39 0 0 Left 2
SYMATTR InstName V3
SYMATTR Value PULSE(5 0 0 1p 1p 4u 8u)
TEXT 512 -80 Left 2 !.include 74hct.lib
TEXT 528 -8 Left 2 !.tran 8u
