Version 4
SHEET 1 968 680
WIRE -160 16 -240 16
WIRE 48 16 -160 16
WIRE 48 96 48 16
WIRE 176 112 160 112
WIRE 304 112 176 112
WIRE 48 128 -16 128
WIRE 304 208 304 112
WIRE 416 208 304 208
WIRE 624 224 528 224
WIRE -80 240 -240 240
WIRE -16 240 -16 128
WIRE -16 240 -80 240
WIRE 192 240 160 240
WIRE 416 240 192 240
WIRE -80 272 -80 240
WIRE 48 272 -80 272
WIRE 160 288 160 240
WIRE 48 304 0 304
WIRE 624 368 624 224
WIRE 928 384 736 384
WIRE 192 400 160 400
WIRE 624 400 192 400
WIRE -224 464 -240 464
WIRE -112 464 -224 464
WIRE 0 464 0 304
WIRE 0 464 -112 464
WIRE -112 496 -112 464
WIRE 48 496 -112 496
WIRE 160 512 160 400
WIRE -160 528 -160 16
WIRE 48 528 -160 528
FLAG -160 16 A
FLAG -240 240 B
FLAG -224 464 C
FLAG 928 384 F
FLAG -240 96 0
FLAG -240 320 0
FLAG -240 544 0
FLAG 176 112 AB
FLAG 192 240 BC
FLAG 192 400 CA
FLAG 528 224 AB+BC
SYMBOL 74hct08 96 48 R0
SYMATTR InstName U1
SYMBOL 74hct08 96 224 R0
SYMATTR InstName U2
SYMBOL 74hct08 96 448 R0
SYMATTR InstName U3
SYMBOL 74hct32 464 160 R0
SYMATTR InstName U4
SYMBOL 74hct32 672 320 R0
SYMATTR InstName U5
SYMBOL voltage -240 0 R0
WINDOW 3 -336 57 Left 2
WINDOW 123 0 0 Left 2
WINDOW 39 0 0 Left 2
SYMATTR InstName V1
SYMATTR Value PULSE(5 0 0 1p 1p 1u 2u)
SYMBOL voltage -240 224 R0
WINDOW 3 -336 57 Left 2
WINDOW 123 0 0 Left 2
WINDOW 39 0 0 Left 2
SYMATTR InstName V2
SYMATTR Value PULSE(5 0 0 1p 1p 2u 4u)
SYMBOL voltage -240 448 R0
WINDOW 3 -336 57 Left 2
WINDOW 123 0 0 Left 2
WINDOW 39 0 0 Left 2
SYMATTR InstName V3
SYMATTR Value PULSE(5 0 0 1p 1p 4u 8u)
TEXT 552 -160 Left 2 !.include 74hct.lib
TEXT 560 -96 Left 2 !.tran 8u
