Version 4
SHEET 1 880 680
WIRE 304 -16 80 -16
WIRE 560 -16 352 -16
WIRE 176 32 16 32
WIRE 448 32 176 32
WIRE 16 112 16 32
WIRE 16 112 -16 112
WIRE 80 112 80 -16
WIRE 288 112 272 112
WIRE 352 112 352 -16
WIRE 576 112 544 112
WIRE 304 144 304 -16
WIRE 336 144 304 144
WIRE 352 144 336 144
WIRE 336 176 336 144
WIRE 336 176 272 176
WIRE 560 176 560 -16
WIRE 560 176 544 176
WIRE 80 224 80 144
WIRE 80 224 -16 224
WIRE 16 256 16 112
WIRE 176 256 16 256
WIRE 448 256 176 256
WIRE 288 352 288 112
WIRE 576 352 576 112
FLAG -96 112 0
FLAG -96 224 0
FLAG 288 352 Q0
FLAG 576 352 Q1
SYMBOL 74hct74 176 32 R0
SYMATTR InstName U1
SYMBOL 74hct74 448 32 R0
SYMATTR InstName U2
SYMBOL voltage 0 112 R90
WINDOW 0 -32 56 VBottom 2
WINDOW 3 32 56 VTop 2
WINDOW 123 0 0 Left 2
WINDOW 39 0 0 Left 2
SYMATTR InstName V1
SYMATTR Value 5V
SYMBOL voltage 0 224 R90
WINDOW 0 -32 56 VBottom 2
WINDOW 3 32 56 VTop 2
WINDOW 123 0 0 Left 2
WINDOW 39 0 0 Left 2
SYMATTR InstName V2
SYMATTR Value PULSE(0 5V 0 1p 1p 1u 2u)
TEXT 368 -128 Left 2 !.include 74hct.lib
TEXT -228 358 Left 2 !.tran 10u
