Version 4
SHEET 1 880 680
WIRE 160 0 -80 0
WIRE 480 32 144 32
WIRE 480 64 480 32
WIRE 512 64 480 64
WIRE -80 80 -80 0
WIRE -80 80 -144 80
WIRE 656 80 624 80
WIRE -48 96 -64 96
WIRE 240 96 192 96
WIRE 512 96 464 96
WIRE 144 112 144 32
WIRE 192 112 192 96
WIRE 192 112 144 112
WIRE 464 112 464 96
WIRE 464 112 432 112
WIRE -80 144 -80 80
WIRE -48 144 -80 144
WIRE 160 144 160 0
WIRE 240 144 160 144
WIRE 464 176 464 112
WIRE 656 176 464 176
WIRE -64 192 -64 96
WIRE -48 192 -64 192
WIRE 192 208 192 112
WIRE 240 208 240 192
WIRE 240 208 192 208
WIRE -64 240 -64 192
WIRE -64 240 -144 240
WIRE -64 288 -64 240
WIRE 48 288 48 256
WIRE 48 288 -64 288
WIRE 336 288 336 256
WIRE 336 288 48 288
FLAG -224 80 0
FLAG -224 240 0
SYMBOL 74hct107 48 32 R0
SYMATTR InstName U1
SYMBOL 74hct107 336 32 R0
SYMATTR InstName U2
SYMBOL voltage -128 240 R90
WINDOW 0 -32 56 VBottom 2
WINDOW 3 32 56 VTop 2
WINDOW 123 0 0 Left 2
WINDOW 39 0 0 Left 2
SYMATTR InstName V1
SYMATTR Value 5v
SYMBOL voltage -128 80 R90
WINDOW 0 -32 56 VBottom 2
WINDOW 3 32 56 VTop 2
WINDOW 123 0 0 Left 2
WINDOW 39 0 0 Left 2
SYMATTR InstName V2
SYMATTR Value PULSE(0 5 0 1p 1p 1u 2u)
SYMBOL 74hct86 560 16 R0
SYMATTR InstName U3
TEXT 280 -24 Left 2 !.include 74hct.lib
TEXT -348 308 Left 2 !.tran 10u
