Version 4
SHEET 1 1304 680
WIRE -416 -336 -512 -336
WIRE 752 -256 640 -256
WIRE 480 -224 256 -224
WIRE 752 -224 672 -224
WIRE 144 -208 -176 -208
WIRE 752 -192 704 -192
WIRE -384 -176 -448 -176
WIRE 752 -160 736 -160
WIRE 1008 -160 976 -160
WIRE 1008 -128 976 -128
WIRE -448 -96 -448 -176
WIRE 448 -96 256 -96
WIRE 480 -96 480 -224
WIRE 752 -96 480 -96
WIRE 1008 -96 976 -96
WIRE -176 -80 -176 -208
WIRE 144 -80 -176 -80
WIRE 448 -64 448 -96
WIRE 752 -64 448 -64
WIRE 1008 -64 976 -64
WIRE 752 -32 352 -32
WIRE 768 -32 752 -32
WIRE 144 -16 16 -16
WIRE 752 0 400 0
WIRE -336 32 -384 32
WIRE 144 32 144 -16
WIRE 352 48 352 -32
WIRE 352 48 256 48
WIRE 1024 64 976 64
WIRE -176 96 -176 -80
WIRE 144 96 144 64
WIRE 144 96 -176 96
WIRE -384 112 -384 32
WIRE -256 160 -304 160
WIRE 400 176 400 0
WIRE 400 176 256 176
WIRE -176 240 -176 96
WIRE 144 240 144 192
WIRE 144 240 -176 240
WIRE -304 320 -304 160
WIRE -176 416 -176 240
WIRE -176 464 -176 416
FLAG -512 -256 0
FLAG -448 -16 0
FLAG -384 192 0
FLAG -304 400 0
FLAG -176 544 0
FLAG -416 -336 A1
FLAG -384 -176 A2
FLAG -336 32 A3
FLAG -256 160 A4
FLAG -176 416 M
FLAG 1008 -160 S1
FLAG 1008 -128 S2
FLAG 1008 -96 S3
FLAG 1008 -64 S4
FLAG 752 64 M
FLAG 1024 64 Carry
FLAG 144 -240 0
FLAG 144 -112 0
FLAG 144 160 0
FLAG 16 64 0
FLAG 640 -256 A1
FLAG 672 -224 A2
FLAG 704 -192 A3
FLAG 736 -160 A4
SYMBOL 74hct283 864 -320 R0
SYMATTR InstName U1
SYMBOL voltage -448 -112 R0
WINDOW 3 -72 215 VLeft 2
WINDOW 123 0 0 Left 2
WINDOW 39 0 0 Left 2
SYMATTR Value PULSE(5v 0 0 1p 1p 2u 4u)
SYMATTR InstName V2
SYMBOL voltage -384 96 R0
WINDOW 3 -72 215 VLeft 2
WINDOW 123 0 0 Left 2
WINDOW 39 0 0 Left 2
SYMATTR Value PULSE(5v 0 0 1p 1p 4u 8u)
SYMATTR InstName V3
SYMBOL voltage -304 304 R0
WINDOW 3 -72 215 VLeft 2
WINDOW 123 0 0 Left 2
WINDOW 39 0 0 Left 2
SYMATTR Value PULSE(5v 0 0 1p 1p 8u 16u)
SYMATTR InstName V4
SYMBOL voltage -176 448 R0
WINDOW 3 -72 215 VLeft 2
WINDOW 123 0 0 Left 2
WINDOW 39 0 0 Left 2
SYMATTR Value PULSE(5v 0 0 1p 1p 16u 32u)
SYMATTR InstName V5
SYMBOL 74hct86 192 -288 R0
SYMATTR InstName U2
SYMBOL 74hct86 192 -160 R0
SYMATTR InstName U3
SYMBOL 74hct86 192 -16 R0
SYMATTR InstName U4
SYMBOL 74hct86 192 112 R0
SYMATTR InstName U5
SYMBOL voltage -512 -352 R0
WINDOW 3 -72 215 VLeft 2
WINDOW 123 0 0 Left 2
WINDOW 39 0 0 Left 2
SYMATTR Value PULSE(5v 0 0 1p 1p 1u 2u)
SYMATTR InstName V6
SYMBOL voltage 16 -32 R0
WINDOW 123 0 0 Left 2
WINDOW 39 0 0 Left 2
SYMATTR InstName V1
SYMATTR Value 5
TEXT 1080 -424 Left 2 !.include 74hct.lib
TEXT 1096 -360 Left 2 !.tran 32u
