Version 4
SHEET 1 2360 680
WIRE 352 -352 256 -352
WIRE 1696 -272 1632 -272
WIRE 752 -256 704 -256
WIRE 1248 -240 1104 -240
WIRE 1696 -240 1632 -240
WIRE 752 -224 704 -224
WIRE 1392 -224 1360 -224
WIRE 1248 -208 1168 -208
WIRE 1696 -208 1632 -208
WIRE 384 -192 320 -192
WIRE 752 -192 704 -192
WIRE 1696 -176 1632 -176
WIRE 1984 -176 1920 -176
WIRE 752 -160 704 -160
WIRE 1008 -160 976 -160
WIRE 1392 -160 1392 -224
WIRE 1984 -144 1920 -144
WIRE 1008 -128 976 -128
WIRE 1104 -128 1104 -240
WIRE 1104 -128 1008 -128
WIRE 320 -112 320 -192
WIRE 1984 -112 1920 -112
WIRE 752 -96 704 -96
WIRE 1008 -96 976 -96
WIRE 1104 -96 1008 -96
WIRE 1168 -80 1168 -208
WIRE 1248 -80 1168 -80
WIRE 1696 -80 1616 -80
WIRE 1984 -80 1920 -80
WIRE 752 -64 704 -64
WIRE 1008 -64 976 -64
WIRE 1168 -64 1168 -80
WIRE 1168 -64 1008 -64
WIRE 1392 -64 1392 -128
WIRE 1392 -64 1360 -64
WIRE 1504 -64 1504 -144
WIRE 1104 -48 1104 -96
WIRE 1248 -48 1104 -48
WIRE 1616 -48 1616 -80
WIRE 1696 -48 1616 -48
WIRE 752 -32 704 -32
WIRE 768 -32 752 -32
WIRE 752 0 704 0
WIRE 432 16 384 16
WIRE 1968 48 1920 48
WIRE 1984 48 1968 48
WIRE 1504 64 1504 -32
WIRE 1504 64 976 64
WIRE 384 96 384 16
WIRE 512 144 464 144
WIRE 464 304 464 144
FLAG 256 -272 0
FLAG 320 -32 0
FLAG 384 176 0
FLAG 464 384 0
FLAG 352 -352 A1
FLAG 384 -192 A2
FLAG 432 16 A3
FLAG 512 144 A4
FLAG 1008 -160 Z1
FLAG 1008 -128 Z2
FLAG 1008 -64 Z4
FLAG 1632 -272 Z1
FLAG 1632 -240 Z2
FLAG 1632 -208 Z3
FLAG 1632 -176 Z4
FLAG 1696 -112 0
FLAG 1696 -16 0
FLAG 1008 -96 Z3
FLAG 1984 -176 S1
FLAG 1984 -144 S2
FLAG 1984 -112 S3
FLAG 1984 -80 S4
FLAG 704 -256 A1
FLAG 704 -96 A1
FLAG 704 -224 A2
FLAG 704 -64 A2
FLAG 704 -192 A3
FLAG 704 -32 A3
FLAG 704 -160 A4
FLAG 704 0 A4
FLAG 1968 48 Carry
SYMBOL 74hct283 864 -320 R0
SYMATTR InstName U1
SYMBOL voltage 320 -128 R0
WINDOW 3 -72 215 VLeft 2
WINDOW 123 0 0 Left 2
WINDOW 39 0 0 Left 2
SYMATTR InstName V2
SYMATTR Value PULSE(5v 0 0 1p 1p 2u 4u)
SYMBOL voltage 384 80 R0
WINDOW 3 -72 215 VLeft 2
WINDOW 123 0 0 Left 2
WINDOW 39 0 0 Left 2
SYMATTR InstName V3
SYMATTR Value PULSE(5v 0 0 1p 1p 4u 8u)
SYMBOL voltage 464 288 R0
WINDOW 3 -72 215 VLeft 2
WINDOW 123 0 0 Left 2
WINDOW 39 0 0 Left 2
SYMATTR InstName V4
SYMATTR Value PULSE(5v 0 0 1p 1p 8u 16u)
SYMBOL voltage 256 -368 R0
WINDOW 3 -72 215 VLeft 2
WINDOW 123 0 0 Left 2
WINDOW 39 0 0 Left 2
SYMATTR InstName V6
SYMATTR Value PULSE(5v 0 0 1p 1p 1u 2u)
SYMBOL 74hct283 1808 -336 R0
SYMATTR InstName U6
SYMBOL 74hct08 1296 -288 R0
SYMATTR InstName U7
SYMBOL 74hct08 1296 -128 R0
SYMATTR InstName U8
SYMBOL 74hct32 1440 -208 R0
SYMATTR InstName U2
SYMBOL 74hct32 1552 -112 R0
SYMATTR InstName U3
TEXT 1456 -520 Left 2 !.include 74hct.lib
TEXT 1488 -456 Left 2 !.tran 16u
